Results/PF_SnapMode/Switch_Close/VOLTAGES_REPORT.Txt

SYMMETRICAL COMPONENT VOLTAGES BY BUS (for 3-phase buses)

Bus        Mag:   V1 (kV)    p.u.     V2 (kV)   %V2/V1    V0 (kV)    %V0/V1

sourcebus     6.351          1  3.104E-009  4.887E-008 4.131E-010 6.505E-009
bus1          6.351          1  3.103E-009  4.887E-008 4.131E-010 6.505E-009
bus2          6.351          1  3.103E-009  4.887E-008 4.131E-010 6.505E-009
bus3         0.2305      0.998  1.194E-010  5.179E-008 3.407E-015 1.478E-012
bus4         0.2305      0.998  1.194E-010  5.179E-008 3.427E-015 1.487E-012
bus5         0.2117     0.9165  1.096E-010  5.176E-008 1.034E-013 4.884E-011
bus6         0.2117     0.9166  1.096E-010  5.176E-008 1.033E-013 4.88E-011
